
---------- Begin Simulation Statistics ----------
simSeconds                                   0.845859                       # Number of seconds simulated (Second)
simTicks                                 845858809000                       # Number of ticks simulated (Tick)
finalTick                                960795018500                       # Number of ticks from beginning of simulation (restored from checkpoints and never reset) (Tick)
simFreq                                  1000000000000                       # The number of ticks per simulated second ((Tick/Second))
hostSeconds                                   1466.80                       # Real time elapsed on the host (Second)
hostTickRate                                576668089                       # The number of ticks simulated per host second (ticks/s) ((Tick/Second))
hostMemory                                    8725852                       # Number of bytes of host memory used (Byte)
simInsts                                    700000001                       # Number of instructions simulated (Count)
simOps                                      791238465                       # Number of ops (including micro ops) simulated (Count)
hostInstRate                                   477228                       # Simulator instruction rate (inst/s) ((Count/Second))
hostOpRate                                     539430                       # Simulator op (including micro ops) rate (op/s) ((Count/Second))
system.clk_domain.clock                          1000                       # Clock period in ticks (Tick)
system.cpu.numCycles                                0                       # Number of cpu cycles simulated (Cycle)
system.cpu.numWorkItemsStarted                      0                       # Number of work items this cpu started (Count)
system.cpu.numWorkItemsCompleted                    0                       # Number of work items this cpu completed (Count)
system.cpu.dcache.demandHits::switch_cpus.data    177705443                       # number of demand (read+write) hits (Count)
system.cpu.dcache.demandHits::total         177705443                       # number of demand (read+write) hits (Count)
system.cpu.dcache.overallHits::switch_cpus.data    178029013                       # number of overall hits (Count)
system.cpu.dcache.overallHits::total        178029013                       # number of overall hits (Count)
system.cpu.dcache.demandMisses::switch_cpus.data      2879611                       # number of demand (read+write) misses (Count)
system.cpu.dcache.demandMisses::total         2879611                       # number of demand (read+write) misses (Count)
system.cpu.dcache.overallMisses::switch_cpus.data      2885112                       # number of overall misses (Count)
system.cpu.dcache.overallMisses::total        2885112                       # number of overall misses (Count)
system.cpu.dcache.demandMissLatency::switch_cpus.data  50074308500                       # number of demand (read+write) miss ticks (Tick)
system.cpu.dcache.demandMissLatency::total  50074308500                       # number of demand (read+write) miss ticks (Tick)
system.cpu.dcache.overallMissLatency::switch_cpus.data  50074308500                       # number of overall miss ticks (Tick)
system.cpu.dcache.overallMissLatency::total  50074308500                       # number of overall miss ticks (Tick)
system.cpu.dcache.demandAccesses::switch_cpus.data    180585054                       # number of demand (read+write) accesses (Count)
system.cpu.dcache.demandAccesses::total     180585054                       # number of demand (read+write) accesses (Count)
system.cpu.dcache.overallAccesses::switch_cpus.data    180914125                       # number of overall (read+write) accesses (Count)
system.cpu.dcache.overallAccesses::total    180914125                       # number of overall (read+write) accesses (Count)
system.cpu.dcache.demandMissRate::switch_cpus.data     0.015946                       # miss rate for demand accesses (Ratio)
system.cpu.dcache.demandMissRate::total      0.015946                       # miss rate for demand accesses (Ratio)
system.cpu.dcache.overallMissRate::switch_cpus.data     0.015947                       # miss rate for overall accesses (Ratio)
system.cpu.dcache.overallMissRate::total     0.015947                       # miss rate for overall accesses (Ratio)
system.cpu.dcache.demandAvgMissLatency::switch_cpus.data 17389.261431                       # average overall miss latency in ticks ((Tick/Count))
system.cpu.dcache.demandAvgMissLatency::total 17389.261431                       # average overall miss latency in ticks ((Tick/Count))
system.cpu.dcache.overallAvgMissLatency::switch_cpus.data 17356.105586                       # average overall miss latency ((Tick/Count))
system.cpu.dcache.overallAvgMissLatency::total 17356.105586                       # average overall miss latency ((Tick/Count))
system.cpu.dcache.blockedCycles::no_mshrs            0                       # number of cycles access was blocked (Cycle)
system.cpu.dcache.blockedCycles::no_targets            0                       # number of cycles access was blocked (Cycle)
system.cpu.dcache.blockedCauses::no_mshrs            0                       # number of times access was blocked (Count)
system.cpu.dcache.blockedCauses::no_targets            0                       # number of times access was blocked (Count)
system.cpu.dcache.avgBlocked::no_mshrs            nan                       # average number of cycles each access was blocked ((Cycle/Count))
system.cpu.dcache.avgBlocked::no_targets          nan                       # average number of cycles each access was blocked ((Cycle/Count))
system.cpu.dcache.writebacks::writebacks       696891                       # number of writebacks (Count)
system.cpu.dcache.writebacks::total            696891                       # number of writebacks (Count)
system.cpu.dcache.demandMshrHits::switch_cpus.data       573245                       # number of demand (read+write) MSHR hits (Count)
system.cpu.dcache.demandMshrHits::total        573245                       # number of demand (read+write) MSHR hits (Count)
system.cpu.dcache.overallMshrHits::switch_cpus.data       573245                       # number of overall MSHR hits (Count)
system.cpu.dcache.overallMshrHits::total       573245                       # number of overall MSHR hits (Count)
system.cpu.dcache.demandMshrMisses::switch_cpus.data      2306366                       # number of demand (read+write) MSHR misses (Count)
system.cpu.dcache.demandMshrMisses::total      2306366                       # number of demand (read+write) MSHR misses (Count)
system.cpu.dcache.overallMshrMisses::switch_cpus.data      2311867                       # number of overall MSHR misses (Count)
system.cpu.dcache.overallMshrMisses::total      2311867                       # number of overall MSHR misses (Count)
system.cpu.dcache.demandMshrMissLatency::switch_cpus.data  34440851500                       # number of demand (read+write) MSHR miss ticks (Tick)
system.cpu.dcache.demandMshrMissLatency::total  34440851500                       # number of demand (read+write) MSHR miss ticks (Tick)
system.cpu.dcache.overallMshrMissLatency::switch_cpus.data  34506922500                       # number of overall MSHR miss ticks (Tick)
system.cpu.dcache.overallMshrMissLatency::total  34506922500                       # number of overall MSHR miss ticks (Tick)
system.cpu.dcache.demandMshrMissRate::switch_cpus.data     0.012772                       # mshr miss ratio for demand accesses (Ratio)
system.cpu.dcache.demandMshrMissRate::total     0.012772                       # mshr miss ratio for demand accesses (Ratio)
system.cpu.dcache.overallMshrMissRate::switch_cpus.data     0.012779                       # mshr miss ratio for overall accesses (Ratio)
system.cpu.dcache.overallMshrMissRate::total     0.012779                       # mshr miss ratio for overall accesses (Ratio)
system.cpu.dcache.demandAvgMshrMissLatency::switch_cpus.data 14932.951448                       # average overall mshr miss latency ((Tick/Count))
system.cpu.dcache.demandAvgMshrMissLatency::total 14932.951448                       # average overall mshr miss latency ((Tick/Count))
system.cpu.dcache.overallAvgMshrMissLatency::switch_cpus.data 14925.998122                       # average overall mshr miss latency ((Tick/Count))
system.cpu.dcache.overallAvgMshrMissLatency::total 14925.998122                       # average overall mshr miss latency ((Tick/Count))
system.cpu.dcache.replacements                2311867                       # number of replacements (Count)
system.cpu.dcache.LoadLockedReq.hits::switch_cpus.data       918904                       # number of LoadLockedReq hits (Count)
system.cpu.dcache.LoadLockedReq.hits::total       918904                       # number of LoadLockedReq hits (Count)
system.cpu.dcache.LoadLockedReq.accesses::switch_cpus.data       918904                       # number of LoadLockedReq accesses(hits+misses) (Count)
system.cpu.dcache.LoadLockedReq.accesses::total       918904                       # number of LoadLockedReq accesses(hits+misses) (Count)
system.cpu.dcache.ReadReq.hits::switch_cpus.data     97650185                       # number of ReadReq hits (Count)
system.cpu.dcache.ReadReq.hits::total        97650185                       # number of ReadReq hits (Count)
system.cpu.dcache.ReadReq.misses::switch_cpus.data      1677372                       # number of ReadReq misses (Count)
system.cpu.dcache.ReadReq.misses::total       1677372                       # number of ReadReq misses (Count)
system.cpu.dcache.ReadReq.missLatency::switch_cpus.data  21907880500                       # number of ReadReq miss ticks (Tick)
system.cpu.dcache.ReadReq.missLatency::total  21907880500                       # number of ReadReq miss ticks (Tick)
system.cpu.dcache.ReadReq.accesses::switch_cpus.data     99327557                       # number of ReadReq accesses(hits+misses) (Count)
system.cpu.dcache.ReadReq.accesses::total     99327557                       # number of ReadReq accesses(hits+misses) (Count)
system.cpu.dcache.ReadReq.missRate::switch_cpus.data     0.016887                       # miss rate for ReadReq accesses (Ratio)
system.cpu.dcache.ReadReq.missRate::total     0.016887                       # miss rate for ReadReq accesses (Ratio)
system.cpu.dcache.ReadReq.avgMissLatency::switch_cpus.data 13060.835939                       # average ReadReq miss latency ((Tick/Count))
system.cpu.dcache.ReadReq.avgMissLatency::total 13060.835939                       # average ReadReq miss latency ((Tick/Count))
system.cpu.dcache.ReadReq.mshrHits::switch_cpus.data         3605                       # number of ReadReq MSHR hits (Count)
system.cpu.dcache.ReadReq.mshrHits::total         3605                       # number of ReadReq MSHR hits (Count)
system.cpu.dcache.ReadReq.mshrMisses::switch_cpus.data      1673767                       # number of ReadReq MSHR misses (Count)
system.cpu.dcache.ReadReq.mshrMisses::total      1673767                       # number of ReadReq MSHR misses (Count)
system.cpu.dcache.ReadReq.mshrMissLatency::switch_cpus.data  20186402500                       # number of ReadReq MSHR miss ticks (Tick)
system.cpu.dcache.ReadReq.mshrMissLatency::total  20186402500                       # number of ReadReq MSHR miss ticks (Tick)
system.cpu.dcache.ReadReq.mshrMissRate::switch_cpus.data     0.016851                       # mshr miss rate for ReadReq accesses (Ratio)
system.cpu.dcache.ReadReq.mshrMissRate::total     0.016851                       # mshr miss rate for ReadReq accesses (Ratio)
system.cpu.dcache.ReadReq.avgMshrMissLatency::switch_cpus.data 12060.461522                       # average ReadReq mshr miss latency ((Tick/Count))
system.cpu.dcache.ReadReq.avgMshrMissLatency::total 12060.461522                       # average ReadReq mshr miss latency ((Tick/Count))
system.cpu.dcache.SoftPFReq.hits::switch_cpus.data       323570                       # number of SoftPFReq hits (Count)
system.cpu.dcache.SoftPFReq.hits::total        323570                       # number of SoftPFReq hits (Count)
system.cpu.dcache.SoftPFReq.misses::switch_cpus.data         5501                       # number of SoftPFReq misses (Count)
system.cpu.dcache.SoftPFReq.misses::total         5501                       # number of SoftPFReq misses (Count)
system.cpu.dcache.SoftPFReq.accesses::switch_cpus.data       329071                       # number of SoftPFReq accesses(hits+misses) (Count)
system.cpu.dcache.SoftPFReq.accesses::total       329071                       # number of SoftPFReq accesses(hits+misses) (Count)
system.cpu.dcache.SoftPFReq.missRate::switch_cpus.data     0.016717                       # miss rate for SoftPFReq accesses (Ratio)
system.cpu.dcache.SoftPFReq.missRate::total     0.016717                       # miss rate for SoftPFReq accesses (Ratio)
system.cpu.dcache.SoftPFReq.mshrMisses::switch_cpus.data         5501                       # number of SoftPFReq MSHR misses (Count)
system.cpu.dcache.SoftPFReq.mshrMisses::total         5501                       # number of SoftPFReq MSHR misses (Count)
system.cpu.dcache.SoftPFReq.mshrMissLatency::switch_cpus.data     66071000                       # number of SoftPFReq MSHR miss ticks (Tick)
system.cpu.dcache.SoftPFReq.mshrMissLatency::total     66071000                       # number of SoftPFReq MSHR miss ticks (Tick)
system.cpu.dcache.SoftPFReq.mshrMissRate::switch_cpus.data     0.016717                       # mshr miss rate for SoftPFReq accesses (Ratio)
system.cpu.dcache.SoftPFReq.mshrMissRate::total     0.016717                       # mshr miss rate for SoftPFReq accesses (Ratio)
system.cpu.dcache.SoftPFReq.avgMshrMissLatency::switch_cpus.data 12010.725323                       # average SoftPFReq mshr miss latency ((Tick/Count))
system.cpu.dcache.SoftPFReq.avgMshrMissLatency::total 12010.725323                       # average SoftPFReq mshr miss latency ((Tick/Count))
system.cpu.dcache.StoreCondReq.hits::switch_cpus.data       918904                       # number of StoreCondReq hits (Count)
system.cpu.dcache.StoreCondReq.hits::total       918904                       # number of StoreCondReq hits (Count)
system.cpu.dcache.StoreCondReq.accesses::switch_cpus.data       918904                       # number of StoreCondReq accesses(hits+misses) (Count)
system.cpu.dcache.StoreCondReq.accesses::total       918904                       # number of StoreCondReq accesses(hits+misses) (Count)
system.cpu.dcache.WriteReq.hits::switch_cpus.data     80055258                       # number of WriteReq hits (Count)
system.cpu.dcache.WriteReq.hits::total       80055258                       # number of WriteReq hits (Count)
system.cpu.dcache.WriteReq.misses::switch_cpus.data      1202239                       # number of WriteReq misses (Count)
system.cpu.dcache.WriteReq.misses::total      1202239                       # number of WriteReq misses (Count)
system.cpu.dcache.WriteReq.missLatency::switch_cpus.data  28166428000                       # number of WriteReq miss ticks (Tick)
system.cpu.dcache.WriteReq.missLatency::total  28166428000                       # number of WriteReq miss ticks (Tick)
system.cpu.dcache.WriteReq.accesses::switch_cpus.data     81257497                       # number of WriteReq accesses(hits+misses) (Count)
system.cpu.dcache.WriteReq.accesses::total     81257497                       # number of WriteReq accesses(hits+misses) (Count)
system.cpu.dcache.WriteReq.missRate::switch_cpus.data     0.014795                       # miss rate for WriteReq accesses (Ratio)
system.cpu.dcache.WriteReq.missRate::total     0.014795                       # miss rate for WriteReq accesses (Ratio)
system.cpu.dcache.WriteReq.avgMissLatency::switch_cpus.data 23428.310012                       # average WriteReq miss latency ((Tick/Count))
system.cpu.dcache.WriteReq.avgMissLatency::total 23428.310012                       # average WriteReq miss latency ((Tick/Count))
system.cpu.dcache.WriteReq.mshrHits::switch_cpus.data       569640                       # number of WriteReq MSHR hits (Count)
system.cpu.dcache.WriteReq.mshrHits::total       569640                       # number of WriteReq MSHR hits (Count)
system.cpu.dcache.WriteReq.mshrMisses::switch_cpus.data       632599                       # number of WriteReq MSHR misses (Count)
system.cpu.dcache.WriteReq.mshrMisses::total       632599                       # number of WriteReq MSHR misses (Count)
system.cpu.dcache.WriteReq.mshrMissLatency::switch_cpus.data  14254449000                       # number of WriteReq MSHR miss ticks (Tick)
system.cpu.dcache.WriteReq.mshrMissLatency::total  14254449000                       # number of WriteReq MSHR miss ticks (Tick)
system.cpu.dcache.WriteReq.mshrMissRate::switch_cpus.data     0.007785                       # mshr miss rate for WriteReq accesses (Ratio)
system.cpu.dcache.WriteReq.mshrMissRate::total     0.007785                       # mshr miss rate for WriteReq accesses (Ratio)
system.cpu.dcache.WriteReq.avgMshrMissLatency::switch_cpus.data 22533.151333                       # average WriteReq mshr miss latency ((Tick/Count))
system.cpu.dcache.WriteReq.avgMshrMissLatency::total 22533.151333                       # average WriteReq mshr miss latency ((Tick/Count))
system.cpu.dcache.power_state.pwrStateResidencyTicks::UNDEFINED 960795018500                       # Cumulative time (in ticks) in various power states (Tick)
system.cpu.dcache.tags.tagsInUse                  128                       # Average ticks per tags in use ((Tick/Count))
system.cpu.dcache.tags.totalRefs            195246289                       # Total number of references to valid blocks. (Count)
system.cpu.dcache.tags.sampledRefs            2311995                       # Sample count of references to valid blocks. (Count)
system.cpu.dcache.tags.avgRefs              84.449270                       # Average number of references to valid blocks. ((Count/Count))
system.cpu.dcache.tags.warmupTick                   0                       # The tick when the warmup percentage was hit. (Tick)
system.cpu.dcache.tags.occupancies::cpu.data     1.919253                       # Average occupied blocks per tick, per requestor ((Count/Tick))
system.cpu.dcache.tags.occupancies::switch_cpus.data   126.080747                       # Average occupied blocks per tick, per requestor ((Count/Tick))
system.cpu.dcache.tags.avgOccs::cpu.data     0.014994                       # Average percentage of cache occupancy ((Ratio/Tick))
system.cpu.dcache.tags.avgOccs::switch_cpus.data     0.985006                       # Average percentage of cache occupancy ((Ratio/Tick))
system.cpu.dcache.tags.avgOccs::total               1                       # Average percentage of cache occupancy ((Ratio/Tick))
system.cpu.dcache.tags.occupanciesTaskId::1024          128                       # Occupied blocks per task id (Count)
system.cpu.dcache.tags.ageTaskId_1024::1           17                       # Occupied blocks per task id, per block age (Count)
system.cpu.dcache.tags.ageTaskId_1024::2           81                       # Occupied blocks per task id, per block age (Count)
system.cpu.dcache.tags.ageTaskId_1024::3           30                       # Occupied blocks per task id, per block age (Count)
system.cpu.dcache.tags.ratioOccsTaskId::1024            1                       # Ratio of occupied blocks and all blocks, per task id (Ratio)
system.cpu.dcache.tags.tagAccesses          367815733                       # Number of tag accesses (Count)
system.cpu.dcache.tags.dataAccesses         367815733                       # Number of data accesses (Count)
system.cpu.dcache.tags.power_state.pwrStateResidencyTicks::UNDEFINED 960795018500                       # Cumulative time (in ticks) in various power states (Tick)
system.cpu.exec_context.thread_0.numInsts            0                       # Number of instructions committed (Count)
system.cpu.exec_context.thread_0.numOps             0                       # Number of ops (including micro ops) committed (Count)
system.cpu.exec_context.thread_0.numIntAluAccesses            0                       # Number of integer alu accesses (Count)
system.cpu.exec_context.thread_0.numFpAluAccesses            0                       # Number of float alu accesses (Count)
system.cpu.exec_context.thread_0.numVecAluAccesses            0                       # Number of vector alu accesses (Count)
system.cpu.exec_context.thread_0.numCallsReturns            0                       # Number of times a function call or return occured (Count)
system.cpu.exec_context.thread_0.numCondCtrlInsts            0                       # Number of instructions that are conditional controls (Count)
system.cpu.exec_context.thread_0.numIntInsts            0                       # Number of integer instructions (Count)
system.cpu.exec_context.thread_0.numFpInsts            0                       # Number of float instructions (Count)
system.cpu.exec_context.thread_0.numVecInsts            0                       # Number of vector instructions (Count)
system.cpu.exec_context.thread_0.numIntRegReads            0                       # Number of times the integer registers were read (Count)
system.cpu.exec_context.thread_0.numIntRegWrites            0                       # Number of times the integer registers were written (Count)
system.cpu.exec_context.thread_0.numFpRegReads            0                       # Number of times the floating registers were read (Count)
system.cpu.exec_context.thread_0.numFpRegWrites            0                       # Number of times the floating registers were written (Count)
system.cpu.exec_context.thread_0.numVecRegReads            0                       # Number of times the vector registers were read (Count)
system.cpu.exec_context.thread_0.numVecRegWrites            0                       # Number of times the vector registers were written (Count)
system.cpu.exec_context.thread_0.numVecPredRegReads            0                       # Number of times the predicate registers were read (Count)
system.cpu.exec_context.thread_0.numVecPredRegWrites            0                       # Number of times the predicate registers were written (Count)
system.cpu.exec_context.thread_0.numMiscRegReads            0                       # Number of times the Misc registers were read (Count)
system.cpu.exec_context.thread_0.numMiscRegWrites            0                       # Number of times the Misc registers were written (Count)
system.cpu.exec_context.thread_0.numMemRefs            0                       # Number of memory refs (Count)
system.cpu.exec_context.thread_0.numLoadInsts            0                       # Number of load instructions (Count)
system.cpu.exec_context.thread_0.numStoreInsts            0                       # Number of store instructions (Count)
system.cpu.exec_context.thread_0.numIdleCycles            0                       # Number of idle cycles (Cycle)
system.cpu.exec_context.thread_0.numBusyCycles            0                       # Number of busy cycles (Cycle)
system.cpu.exec_context.thread_0.notIdleFraction            1                       # Percentage of non-idle cycles (Ratio)
system.cpu.exec_context.thread_0.idleFraction            0                       # Percentage of idle cycles (Ratio)
system.cpu.exec_context.thread_0.statExecutedInstType::No_OpClass            0                       # Class of executed instruction. (Count)
system.cpu.exec_context.thread_0.statExecutedInstType::IntAlu            0                       # Class of executed instruction. (Count)
system.cpu.exec_context.thread_0.statExecutedInstType::IntMult            0                       # Class of executed instruction. (Count)
system.cpu.exec_context.thread_0.statExecutedInstType::IntDiv            0                       # Class of executed instruction. (Count)
system.cpu.exec_context.thread_0.statExecutedInstType::FloatAdd            0                       # Class of executed instruction. (Count)
system.cpu.exec_context.thread_0.statExecutedInstType::FloatCmp            0                       # Class of executed instruction. (Count)
system.cpu.exec_context.thread_0.statExecutedInstType::FloatCvt            0                       # Class of executed instruction. (Count)
system.cpu.exec_context.thread_0.statExecutedInstType::FloatMult            0                       # Class of executed instruction. (Count)
system.cpu.exec_context.thread_0.statExecutedInstType::FloatMultAcc            0                       # Class of executed instruction. (Count)
system.cpu.exec_context.thread_0.statExecutedInstType::FloatDiv            0                       # Class of executed instruction. (Count)
system.cpu.exec_context.thread_0.statExecutedInstType::FloatMisc            0                       # Class of executed instruction. (Count)
system.cpu.exec_context.thread_0.statExecutedInstType::FloatSqrt            0                       # Class of executed instruction. (Count)
system.cpu.exec_context.thread_0.statExecutedInstType::SimdAdd            0                       # Class of executed instruction. (Count)
system.cpu.exec_context.thread_0.statExecutedInstType::SimdAddAcc            0                       # Class of executed instruction. (Count)
system.cpu.exec_context.thread_0.statExecutedInstType::SimdAlu            0                       # Class of executed instruction. (Count)
system.cpu.exec_context.thread_0.statExecutedInstType::SimdCmp            0                       # Class of executed instruction. (Count)
system.cpu.exec_context.thread_0.statExecutedInstType::SimdCvt            0                       # Class of executed instruction. (Count)
system.cpu.exec_context.thread_0.statExecutedInstType::SimdMisc            0                       # Class of executed instruction. (Count)
system.cpu.exec_context.thread_0.statExecutedInstType::SimdMult            0                       # Class of executed instruction. (Count)
system.cpu.exec_context.thread_0.statExecutedInstType::SimdMultAcc            0                       # Class of executed instruction. (Count)
system.cpu.exec_context.thread_0.statExecutedInstType::SimdShift            0                       # Class of executed instruction. (Count)
system.cpu.exec_context.thread_0.statExecutedInstType::SimdShiftAcc            0                       # Class of executed instruction. (Count)
system.cpu.exec_context.thread_0.statExecutedInstType::SimdDiv            0                       # Class of executed instruction. (Count)
system.cpu.exec_context.thread_0.statExecutedInstType::SimdSqrt            0                       # Class of executed instruction. (Count)
system.cpu.exec_context.thread_0.statExecutedInstType::SimdFloatAdd            0                       # Class of executed instruction. (Count)
system.cpu.exec_context.thread_0.statExecutedInstType::SimdFloatAlu            0                       # Class of executed instruction. (Count)
system.cpu.exec_context.thread_0.statExecutedInstType::SimdFloatCmp            0                       # Class of executed instruction. (Count)
system.cpu.exec_context.thread_0.statExecutedInstType::SimdFloatCvt            0                       # Class of executed instruction. (Count)
system.cpu.exec_context.thread_0.statExecutedInstType::SimdFloatDiv            0                       # Class of executed instruction. (Count)
system.cpu.exec_context.thread_0.statExecutedInstType::SimdFloatMisc            0                       # Class of executed instruction. (Count)
system.cpu.exec_context.thread_0.statExecutedInstType::SimdFloatMult            0                       # Class of executed instruction. (Count)
system.cpu.exec_context.thread_0.statExecutedInstType::SimdFloatMultAcc            0                       # Class of executed instruction. (Count)
system.cpu.exec_context.thread_0.statExecutedInstType::SimdFloatSqrt            0                       # Class of executed instruction. (Count)
system.cpu.exec_context.thread_0.statExecutedInstType::SimdReduceAdd            0                       # Class of executed instruction. (Count)
system.cpu.exec_context.thread_0.statExecutedInstType::SimdReduceAlu            0                       # Class of executed instruction. (Count)
system.cpu.exec_context.thread_0.statExecutedInstType::SimdReduceCmp            0                       # Class of executed instruction. (Count)
system.cpu.exec_context.thread_0.statExecutedInstType::SimdFloatReduceAdd            0                       # Class of executed instruction. (Count)
system.cpu.exec_context.thread_0.statExecutedInstType::SimdFloatReduceCmp            0                       # Class of executed instruction. (Count)
system.cpu.exec_context.thread_0.statExecutedInstType::SimdAes            0                       # Class of executed instruction. (Count)
system.cpu.exec_context.thread_0.statExecutedInstType::SimdAesMix            0                       # Class of executed instruction. (Count)
system.cpu.exec_context.thread_0.statExecutedInstType::SimdSha1Hash            0                       # Class of executed instruction. (Count)
system.cpu.exec_context.thread_0.statExecutedInstType::SimdSha1Hash2            0                       # Class of executed instruction. (Count)
system.cpu.exec_context.thread_0.statExecutedInstType::SimdSha256Hash            0                       # Class of executed instruction. (Count)
system.cpu.exec_context.thread_0.statExecutedInstType::SimdSha256Hash2            0                       # Class of executed instruction. (Count)
system.cpu.exec_context.thread_0.statExecutedInstType::SimdShaSigma2            0                       # Class of executed instruction. (Count)
system.cpu.exec_context.thread_0.statExecutedInstType::SimdShaSigma3            0                       # Class of executed instruction. (Count)
system.cpu.exec_context.thread_0.statExecutedInstType::SimdPredAlu            0                       # Class of executed instruction. (Count)
system.cpu.exec_context.thread_0.statExecutedInstType::MemRead            0                       # Class of executed instruction. (Count)
system.cpu.exec_context.thread_0.statExecutedInstType::MemWrite            0                       # Class of executed instruction. (Count)
system.cpu.exec_context.thread_0.statExecutedInstType::FloatMemRead            0                       # Class of executed instruction. (Count)
system.cpu.exec_context.thread_0.statExecutedInstType::FloatMemWrite            0                       # Class of executed instruction. (Count)
system.cpu.exec_context.thread_0.statExecutedInstType::IprAccess            0                       # Class of executed instruction. (Count)
system.cpu.exec_context.thread_0.statExecutedInstType::InstPrefetch            0                       # Class of executed instruction. (Count)
system.cpu.exec_context.thread_0.statExecutedInstType::total            0                       # Class of executed instruction. (Count)
system.cpu.icache.demandHits::switch_cpus.inst    209751075                       # number of demand (read+write) hits (Count)
system.cpu.icache.demandHits::total         209751075                       # number of demand (read+write) hits (Count)
system.cpu.icache.overallHits::switch_cpus.inst    209751075                       # number of overall hits (Count)
system.cpu.icache.overallHits::total        209751075                       # number of overall hits (Count)
system.cpu.icache.demandMisses::switch_cpus.inst     26184481                       # number of demand (read+write) misses (Count)
system.cpu.icache.demandMisses::total        26184481                       # number of demand (read+write) misses (Count)
system.cpu.icache.overallMisses::switch_cpus.inst     26184481                       # number of overall misses (Count)
system.cpu.icache.overallMisses::total       26184481                       # number of overall misses (Count)
system.cpu.icache.demandMissLatency::switch_cpus.inst 340440462000                       # number of demand (read+write) miss ticks (Tick)
system.cpu.icache.demandMissLatency::total 340440462000                       # number of demand (read+write) miss ticks (Tick)
system.cpu.icache.overallMissLatency::switch_cpus.inst 340440462000                       # number of overall miss ticks (Tick)
system.cpu.icache.overallMissLatency::total 340440462000                       # number of overall miss ticks (Tick)
system.cpu.icache.demandAccesses::switch_cpus.inst    235935556                       # number of demand (read+write) accesses (Count)
system.cpu.icache.demandAccesses::total     235935556                       # number of demand (read+write) accesses (Count)
system.cpu.icache.overallAccesses::switch_cpus.inst    235935556                       # number of overall (read+write) accesses (Count)
system.cpu.icache.overallAccesses::total    235935556                       # number of overall (read+write) accesses (Count)
system.cpu.icache.demandMissRate::switch_cpus.inst     0.110981                       # miss rate for demand accesses (Ratio)
system.cpu.icache.demandMissRate::total      0.110981                       # miss rate for demand accesses (Ratio)
system.cpu.icache.overallMissRate::switch_cpus.inst     0.110981                       # miss rate for overall accesses (Ratio)
system.cpu.icache.overallMissRate::total     0.110981                       # miss rate for overall accesses (Ratio)
system.cpu.icache.demandAvgMissLatency::switch_cpus.inst 13001.611985                       # average overall miss latency in ticks ((Tick/Count))
system.cpu.icache.demandAvgMissLatency::total 13001.611985                       # average overall miss latency in ticks ((Tick/Count))
system.cpu.icache.overallAvgMissLatency::switch_cpus.inst 13001.611985                       # average overall miss latency ((Tick/Count))
system.cpu.icache.overallAvgMissLatency::total 13001.611985                       # average overall miss latency ((Tick/Count))
system.cpu.icache.blockedCycles::no_mshrs            0                       # number of cycles access was blocked (Cycle)
system.cpu.icache.blockedCycles::no_targets            0                       # number of cycles access was blocked (Cycle)
system.cpu.icache.blockedCauses::no_mshrs            0                       # number of times access was blocked (Count)
system.cpu.icache.blockedCauses::no_targets            0                       # number of times access was blocked (Count)
system.cpu.icache.avgBlocked::no_mshrs            nan                       # average number of cycles each access was blocked ((Cycle/Count))
system.cpu.icache.avgBlocked::no_targets          nan                       # average number of cycles each access was blocked ((Cycle/Count))
system.cpu.icache.writebacks::writebacks     26184481                       # number of writebacks (Count)
system.cpu.icache.writebacks::total          26184481                       # number of writebacks (Count)
system.cpu.icache.demandMshrMisses::switch_cpus.inst     26184481                       # number of demand (read+write) MSHR misses (Count)
system.cpu.icache.demandMshrMisses::total     26184481                       # number of demand (read+write) MSHR misses (Count)
system.cpu.icache.overallMshrMisses::switch_cpus.inst     26184481                       # number of overall MSHR misses (Count)
system.cpu.icache.overallMshrMisses::total     26184481                       # number of overall MSHR misses (Count)
system.cpu.icache.demandMshrMissLatency::switch_cpus.inst 314255981000                       # number of demand (read+write) MSHR miss ticks (Tick)
system.cpu.icache.demandMshrMissLatency::total 314255981000                       # number of demand (read+write) MSHR miss ticks (Tick)
system.cpu.icache.overallMshrMissLatency::switch_cpus.inst 314255981000                       # number of overall MSHR miss ticks (Tick)
system.cpu.icache.overallMshrMissLatency::total 314255981000                       # number of overall MSHR miss ticks (Tick)
system.cpu.icache.demandMshrMissRate::switch_cpus.inst     0.110981                       # mshr miss ratio for demand accesses (Ratio)
system.cpu.icache.demandMshrMissRate::total     0.110981                       # mshr miss ratio for demand accesses (Ratio)
system.cpu.icache.overallMshrMissRate::switch_cpus.inst     0.110981                       # mshr miss ratio for overall accesses (Ratio)
system.cpu.icache.overallMshrMissRate::total     0.110981                       # mshr miss ratio for overall accesses (Ratio)
system.cpu.icache.demandAvgMshrMissLatency::switch_cpus.inst 12001.611985                       # average overall mshr miss latency ((Tick/Count))
system.cpu.icache.demandAvgMshrMissLatency::total 12001.611985                       # average overall mshr miss latency ((Tick/Count))
system.cpu.icache.overallAvgMshrMissLatency::switch_cpus.inst 12001.611985                       # average overall mshr miss latency ((Tick/Count))
system.cpu.icache.overallAvgMshrMissLatency::total 12001.611985                       # average overall mshr miss latency ((Tick/Count))
system.cpu.icache.replacements               26184481                       # number of replacements (Count)
system.cpu.icache.ReadReq.hits::switch_cpus.inst    209751075                       # number of ReadReq hits (Count)
system.cpu.icache.ReadReq.hits::total       209751075                       # number of ReadReq hits (Count)
system.cpu.icache.ReadReq.misses::switch_cpus.inst     26184481                       # number of ReadReq misses (Count)
system.cpu.icache.ReadReq.misses::total      26184481                       # number of ReadReq misses (Count)
system.cpu.icache.ReadReq.missLatency::switch_cpus.inst 340440462000                       # number of ReadReq miss ticks (Tick)
system.cpu.icache.ReadReq.missLatency::total 340440462000                       # number of ReadReq miss ticks (Tick)
system.cpu.icache.ReadReq.accesses::switch_cpus.inst    235935556                       # number of ReadReq accesses(hits+misses) (Count)
system.cpu.icache.ReadReq.accesses::total    235935556                       # number of ReadReq accesses(hits+misses) (Count)
system.cpu.icache.ReadReq.missRate::switch_cpus.inst     0.110981                       # miss rate for ReadReq accesses (Ratio)
system.cpu.icache.ReadReq.missRate::total     0.110981                       # miss rate for ReadReq accesses (Ratio)
system.cpu.icache.ReadReq.avgMissLatency::switch_cpus.inst 13001.611985                       # average ReadReq miss latency ((Tick/Count))
system.cpu.icache.ReadReq.avgMissLatency::total 13001.611985                       # average ReadReq miss latency ((Tick/Count))
system.cpu.icache.ReadReq.mshrMisses::switch_cpus.inst     26184481                       # number of ReadReq MSHR misses (Count)
system.cpu.icache.ReadReq.mshrMisses::total     26184481                       # number of ReadReq MSHR misses (Count)
system.cpu.icache.ReadReq.mshrMissLatency::switch_cpus.inst 314255981000                       # number of ReadReq MSHR miss ticks (Tick)
system.cpu.icache.ReadReq.mshrMissLatency::total 314255981000                       # number of ReadReq MSHR miss ticks (Tick)
system.cpu.icache.ReadReq.mshrMissRate::switch_cpus.inst     0.110981                       # mshr miss rate for ReadReq accesses (Ratio)
system.cpu.icache.ReadReq.mshrMissRate::total     0.110981                       # mshr miss rate for ReadReq accesses (Ratio)
system.cpu.icache.ReadReq.avgMshrMissLatency::switch_cpus.inst 12001.611985                       # average ReadReq mshr miss latency ((Tick/Count))
system.cpu.icache.ReadReq.avgMshrMissLatency::total 12001.611985                       # average ReadReq mshr miss latency ((Tick/Count))
system.cpu.icache.power_state.pwrStateResidencyTicks::UNDEFINED 960795018500                       # Cumulative time (in ticks) in various power states (Tick)
system.cpu.icache.tags.tagsInUse                  128                       # Average ticks per tags in use ((Tick/Count))
system.cpu.icache.tags.totalRefs            343183527                       # Total number of references to valid blocks. (Count)
system.cpu.icache.tags.sampledRefs           26184609                       # Sample count of references to valid blocks. (Count)
system.cpu.icache.tags.avgRefs              13.106307                       # Average number of references to valid blocks. ((Count/Count))
system.cpu.icache.tags.warmupTick                   0                       # The tick when the warmup percentage was hit. (Tick)
system.cpu.icache.tags.occupancies::cpu.inst    11.768128                       # Average occupied blocks per tick, per requestor ((Count/Tick))
system.cpu.icache.tags.occupancies::switch_cpus.inst   116.231872                       # Average occupied blocks per tick, per requestor ((Count/Tick))
system.cpu.icache.tags.avgOccs::cpu.inst     0.091939                       # Average percentage of cache occupancy ((Ratio/Tick))
system.cpu.icache.tags.avgOccs::switch_cpus.inst     0.908061                       # Average percentage of cache occupancy ((Ratio/Tick))
system.cpu.icache.tags.avgOccs::total               1                       # Average percentage of cache occupancy ((Ratio/Tick))
system.cpu.icache.tags.occupanciesTaskId::1024          128                       # Occupied blocks per task id (Count)
system.cpu.icache.tags.ageTaskId_1024::0           98                       # Occupied blocks per task id, per block age (Count)
system.cpu.icache.tags.ageTaskId_1024::1            5                       # Occupied blocks per task id, per block age (Count)
system.cpu.icache.tags.ageTaskId_1024::2            1                       # Occupied blocks per task id, per block age (Count)
system.cpu.icache.tags.ageTaskId_1024::3           12                       # Occupied blocks per task id, per block age (Count)
system.cpu.icache.tags.ageTaskId_1024::4           12                       # Occupied blocks per task id, per block age (Count)
system.cpu.icache.tags.ratioOccsTaskId::1024            1                       # Ratio of occupied blocks and all blocks, per task id (Ratio)
system.cpu.icache.tags.tagAccesses          498055593                       # Number of tag accesses (Count)
system.cpu.icache.tags.dataAccesses         498055593                       # Number of data accesses (Count)
system.cpu.icache.tags.power_state.pwrStateResidencyTicks::UNDEFINED 960795018500                       # Cumulative time (in ticks) in various power states (Tick)
system.cpu.mmu.alignFaults                          0                       # Number of MMU faults due to alignment restrictions (Count)
system.cpu.mmu.prefetchFaults                       0                       # Number of MMU faults due to prefetch (Count)
system.cpu.mmu.domainFaults                         0                       # Number of MMU faults due to domain restrictions (Count)
system.cpu.mmu.permsFaults                          0                       # Number of MMU faults due to permissions restrictions (Count)
system.cpu.mmu.dtb.readHits                         0                       # Read hits (Count)
system.cpu.mmu.dtb.readMisses                       0                       # Read misses (Count)
system.cpu.mmu.dtb.writeHits                        0                       # Write hits (Count)
system.cpu.mmu.dtb.writeMisses                      0                       # Write misses (Count)
system.cpu.mmu.dtb.inserts                          0                       # Number of times an entry is inserted into the TLB (Count)
system.cpu.mmu.dtb.flushTlb                         0                       # Number of times complete TLB was flushed (Count)
system.cpu.mmu.dtb.flushTlbMva                      0                       # Number of times TLB was flushed by MVA (Count)
system.cpu.mmu.dtb.flushTlbMvaAsid                  0                       # Number of times TLB was flushed by MVA & ASID (Count)
system.cpu.mmu.dtb.flushTlbAsid                     0                       # Number of times TLB was flushed by ASID (Count)
system.cpu.mmu.dtb.flushedEntries                   0                       # Number of entries that have been flushed from TLB (Count)
system.cpu.mmu.dtb.readAccesses                     0                       # Read accesses (Count)
system.cpu.mmu.dtb.writeAccesses                    0                       # Write accesses (Count)
system.cpu.mmu.dtb.hits                             0                       # Total TLB (inst and data) hits (Count)
system.cpu.mmu.dtb.misses                           0                       # Total TLB (inst and data) misses (Count)
system.cpu.mmu.dtb.accesses                         0                       # Total TLB (inst and data) accesses (Count)
system.cpu.mmu.dtb_walker.walks                     0                       # Table walker walks requested (Count)
system.cpu.mmu.dtb_walker.requestOrigin_Requested::Data            0                       # Table walker requests started/completed, data/inst (Count)
system.cpu.mmu.dtb_walker.requestOrigin_Requested::Inst            0                       # Table walker requests started/completed, data/inst (Count)
system.cpu.mmu.dtb_walker.requestOrigin_Requested::total            0                       # Table walker requests started/completed, data/inst (Count)
system.cpu.mmu.dtb_walker.requestOrigin_Completed::Data            0                       # Table walker requests started/completed, data/inst (Count)
system.cpu.mmu.dtb_walker.requestOrigin_Completed::Inst            0                       # Table walker requests started/completed, data/inst (Count)
system.cpu.mmu.dtb_walker.requestOrigin_Completed::total            0                       # Table walker requests started/completed, data/inst (Count)
system.cpu.mmu.dtb_walker.requestOrigin::total            0                       # Table walker requests started/completed, data/inst (Count)
system.cpu.mmu.dtb_walker.power_state.pwrStateResidencyTicks::UNDEFINED 960795018500                       # Cumulative time (in ticks) in various power states (Tick)
system.cpu.mmu.itb.instHits                         0                       # Inst hits (Count)
system.cpu.mmu.itb.instMisses                       0                       # Inst misses (Count)
system.cpu.mmu.itb.inserts                          0                       # Number of times an entry is inserted into the TLB (Count)
system.cpu.mmu.itb.flushTlb                         0                       # Number of times complete TLB was flushed (Count)
system.cpu.mmu.itb.flushTlbMva                      0                       # Number of times TLB was flushed by MVA (Count)
system.cpu.mmu.itb.flushTlbMvaAsid                  0                       # Number of times TLB was flushed by MVA & ASID (Count)
system.cpu.mmu.itb.flushTlbAsid                     0                       # Number of times TLB was flushed by ASID (Count)
system.cpu.mmu.itb.flushedEntries                   0                       # Number of entries that have been flushed from TLB (Count)
system.cpu.mmu.itb.instAccesses                     0                       # Inst accesses (Count)
system.cpu.mmu.itb.hits                             0                       # Total TLB (inst and data) hits (Count)
system.cpu.mmu.itb.misses                           0                       # Total TLB (inst and data) misses (Count)
system.cpu.mmu.itb.accesses                         0                       # Total TLB (inst and data) accesses (Count)
system.cpu.mmu.itb_walker.walks                     0                       # Table walker walks requested (Count)
system.cpu.mmu.itb_walker.requestOrigin_Requested::Data            0                       # Table walker requests started/completed, data/inst (Count)
system.cpu.mmu.itb_walker.requestOrigin_Requested::Inst            0                       # Table walker requests started/completed, data/inst (Count)
system.cpu.mmu.itb_walker.requestOrigin_Requested::total            0                       # Table walker requests started/completed, data/inst (Count)
system.cpu.mmu.itb_walker.requestOrigin_Completed::Data            0                       # Table walker requests started/completed, data/inst (Count)
system.cpu.mmu.itb_walker.requestOrigin_Completed::Inst            0                       # Table walker requests started/completed, data/inst (Count)
system.cpu.mmu.itb_walker.requestOrigin_Completed::total            0                       # Table walker requests started/completed, data/inst (Count)
system.cpu.mmu.itb_walker.requestOrigin::total            0                       # Table walker requests started/completed, data/inst (Count)
system.cpu.mmu.itb_walker.power_state.pwrStateResidencyTicks::UNDEFINED 960795018500                       # Cumulative time (in ticks) in various power states (Tick)
system.cpu.mmu.l2_shared.instHits                   0                       # Inst hits (Count)
system.cpu.mmu.l2_shared.instMisses                 0                       # Inst misses (Count)
system.cpu.mmu.l2_shared.inserts                    0                       # Number of times an entry is inserted into the TLB (Count)
system.cpu.mmu.l2_shared.flushTlb                   0                       # Number of times complete TLB was flushed (Count)
system.cpu.mmu.l2_shared.flushTlbMva                0                       # Number of times TLB was flushed by MVA (Count)
system.cpu.mmu.l2_shared.flushTlbMvaAsid            0                       # Number of times TLB was flushed by MVA & ASID (Count)
system.cpu.mmu.l2_shared.flushTlbAsid               0                       # Number of times TLB was flushed by ASID (Count)
system.cpu.mmu.l2_shared.flushedEntries             0                       # Number of entries that have been flushed from TLB (Count)
system.cpu.mmu.l2_shared.instAccesses               0                       # Inst accesses (Count)
system.cpu.mmu.l2_shared.hits                       0                       # Total TLB (inst and data) hits (Count)
system.cpu.mmu.l2_shared.misses                     0                       # Total TLB (inst and data) misses (Count)
system.cpu.mmu.l2_shared.accesses                   0                       # Total TLB (inst and data) accesses (Count)
system.cpu.mmu.stage2_dtb.readHits                  0                       # Read hits (Count)
system.cpu.mmu.stage2_dtb.readMisses                0                       # Read misses (Count)
system.cpu.mmu.stage2_dtb.writeHits                 0                       # Write hits (Count)
system.cpu.mmu.stage2_dtb.writeMisses               0                       # Write misses (Count)
system.cpu.mmu.stage2_dtb.inserts                   0                       # Number of times an entry is inserted into the TLB (Count)
system.cpu.mmu.stage2_dtb.flushTlb                  0                       # Number of times complete TLB was flushed (Count)
system.cpu.mmu.stage2_dtb.flushTlbMva               0                       # Number of times TLB was flushed by MVA (Count)
system.cpu.mmu.stage2_dtb.flushTlbMvaAsid            0                       # Number of times TLB was flushed by MVA & ASID (Count)
system.cpu.mmu.stage2_dtb.flushTlbAsid              0                       # Number of times TLB was flushed by ASID (Count)
system.cpu.mmu.stage2_dtb.flushedEntries            0                       # Number of entries that have been flushed from TLB (Count)
system.cpu.mmu.stage2_dtb.readAccesses              0                       # Read accesses (Count)
system.cpu.mmu.stage2_dtb.writeAccesses             0                       # Write accesses (Count)
system.cpu.mmu.stage2_dtb.hits                      0                       # Total TLB (inst and data) hits (Count)
system.cpu.mmu.stage2_dtb.misses                    0                       # Total TLB (inst and data) misses (Count)
system.cpu.mmu.stage2_dtb.accesses                  0                       # Total TLB (inst and data) accesses (Count)
system.cpu.mmu.stage2_dtb_walker.walks              0                       # Table walker walks requested (Count)
system.cpu.mmu.stage2_dtb_walker.requestOrigin_Requested::Data            0                       # Table walker requests started/completed, data/inst (Count)
system.cpu.mmu.stage2_dtb_walker.requestOrigin_Requested::Inst            0                       # Table walker requests started/completed, data/inst (Count)
system.cpu.mmu.stage2_dtb_walker.requestOrigin_Requested::total            0                       # Table walker requests started/completed, data/inst (Count)
system.cpu.mmu.stage2_dtb_walker.requestOrigin_Completed::Data            0                       # Table walker requests started/completed, data/inst (Count)
system.cpu.mmu.stage2_dtb_walker.requestOrigin_Completed::Inst            0                       # Table walker requests started/completed, data/inst (Count)
system.cpu.mmu.stage2_dtb_walker.requestOrigin_Completed::total            0                       # Table walker requests started/completed, data/inst (Count)
system.cpu.mmu.stage2_dtb_walker.requestOrigin::total            0                       # Table walker requests started/completed, data/inst (Count)
system.cpu.mmu.stage2_dtb_walker.power_state.pwrStateResidencyTicks::UNDEFINED 960795018500                       # Cumulative time (in ticks) in various power states (Tick)
system.cpu.mmu.stage2_itb.instHits                  0                       # Inst hits (Count)
system.cpu.mmu.stage2_itb.instMisses                0                       # Inst misses (Count)
system.cpu.mmu.stage2_itb.inserts                   0                       # Number of times an entry is inserted into the TLB (Count)
system.cpu.mmu.stage2_itb.flushTlb                  0                       # Number of times complete TLB was flushed (Count)
system.cpu.mmu.stage2_itb.flushTlbMva               0                       # Number of times TLB was flushed by MVA (Count)
system.cpu.mmu.stage2_itb.flushTlbMvaAsid            0                       # Number of times TLB was flushed by MVA & ASID (Count)
system.cpu.mmu.stage2_itb.flushTlbAsid              0                       # Number of times TLB was flushed by ASID (Count)
system.cpu.mmu.stage2_itb.flushedEntries            0                       # Number of entries that have been flushed from TLB (Count)
system.cpu.mmu.stage2_itb.instAccesses              0                       # Inst accesses (Count)
system.cpu.mmu.stage2_itb.hits                      0                       # Total TLB (inst and data) hits (Count)
system.cpu.mmu.stage2_itb.misses                    0                       # Total TLB (inst and data) misses (Count)
system.cpu.mmu.stage2_itb.accesses                  0                       # Total TLB (inst and data) accesses (Count)
system.cpu.mmu.stage2_itb_walker.walks              0                       # Table walker walks requested (Count)
system.cpu.mmu.stage2_itb_walker.requestOrigin_Requested::Data            0                       # Table walker requests started/completed, data/inst (Count)
system.cpu.mmu.stage2_itb_walker.requestOrigin_Requested::Inst            0                       # Table walker requests started/completed, data/inst (Count)
system.cpu.mmu.stage2_itb_walker.requestOrigin_Requested::total            0                       # Table walker requests started/completed, data/inst (Count)
system.cpu.mmu.stage2_itb_walker.requestOrigin_Completed::Data            0                       # Table walker requests started/completed, data/inst (Count)
system.cpu.mmu.stage2_itb_walker.requestOrigin_Completed::Inst            0                       # Table walker requests started/completed, data/inst (Count)
system.cpu.mmu.stage2_itb_walker.requestOrigin_Completed::total            0                       # Table walker requests started/completed, data/inst (Count)
system.cpu.mmu.stage2_itb_walker.requestOrigin::total            0                       # Table walker requests started/completed, data/inst (Count)
system.cpu.mmu.stage2_itb_walker.power_state.pwrStateResidencyTicks::UNDEFINED 960795018500                       # Cumulative time (in ticks) in various power states (Tick)
system.cpu.power_state.pwrStateResidencyTicks::OFF 845858809000                       # Cumulative time (in ticks) in various power states (Tick)
system.cpu.thread_0.numInsts                        0                       # Number of Instructions committed (Count)
system.cpu.thread_0.numOps                          0                       # Number of Ops committed (Count)
system.cpu.thread_0.numMemRefs                      0                       # Number of Memory References (Count)
system.cpu.workload.numSyscalls                   369                       # Number of system calls (Count)
system.cpu_clk_domain.clock                       500                       # Clock period in ticks (Tick)
system.cpu_voltage_domain.voltage                   1                       # Voltage in Volts (Volt)
system.l2.demandHits::switch_cpus.inst       26184106                       # number of demand (read+write) hits (Count)
system.l2.demandHits::switch_cpus.data        2238107                       # number of demand (read+write) hits (Count)
system.l2.demandHits::total                  28422213                       # number of demand (read+write) hits (Count)
system.l2.overallHits::switch_cpus.inst      26184106                       # number of overall hits (Count)
system.l2.overallHits::switch_cpus.data       2238107                       # number of overall hits (Count)
system.l2.overallHits::total                 28422213                       # number of overall hits (Count)
system.l2.demandMisses::switch_cpus.inst          375                       # number of demand (read+write) misses (Count)
system.l2.demandMisses::switch_cpus.data        73760                       # number of demand (read+write) misses (Count)
system.l2.demandMisses::total                   74135                       # number of demand (read+write) misses (Count)
system.l2.overallMisses::switch_cpus.inst          375                       # number of overall misses (Count)
system.l2.overallMisses::switch_cpus.data        73760                       # number of overall misses (Count)
system.l2.overallMisses::total                  74135                       # number of overall misses (Count)
system.l2.demandMissLatency::switch_cpus.inst     32035000                       # number of demand (read+write) miss ticks (Tick)
system.l2.demandMissLatency::switch_cpus.data   7429511000                       # number of demand (read+write) miss ticks (Tick)
system.l2.demandMissLatency::total         7461546000                       # number of demand (read+write) miss ticks (Tick)
system.l2.overallMissLatency::switch_cpus.inst     32035000                       # number of overall miss ticks (Tick)
system.l2.overallMissLatency::switch_cpus.data   7429511000                       # number of overall miss ticks (Tick)
system.l2.overallMissLatency::total        7461546000                       # number of overall miss ticks (Tick)
system.l2.demandAccesses::switch_cpus.inst     26184481                       # number of demand (read+write) accesses (Count)
system.l2.demandAccesses::switch_cpus.data      2311867                       # number of demand (read+write) accesses (Count)
system.l2.demandAccesses::total              28496348                       # number of demand (read+write) accesses (Count)
system.l2.overallAccesses::switch_cpus.inst     26184481                       # number of overall (read+write) accesses (Count)
system.l2.overallAccesses::switch_cpus.data      2311867                       # number of overall (read+write) accesses (Count)
system.l2.overallAccesses::total             28496348                       # number of overall (read+write) accesses (Count)
system.l2.demandMissRate::switch_cpus.inst     0.000014                       # miss rate for demand accesses (Ratio)
system.l2.demandMissRate::switch_cpus.data     0.031905                       # miss rate for demand accesses (Ratio)
system.l2.demandMissRate::total              0.002602                       # miss rate for demand accesses (Ratio)
system.l2.overallMissRate::switch_cpus.inst     0.000014                       # miss rate for overall accesses (Ratio)
system.l2.overallMissRate::switch_cpus.data     0.031905                       # miss rate for overall accesses (Ratio)
system.l2.overallMissRate::total             0.002602                       # miss rate for overall accesses (Ratio)
system.l2.demandAvgMissLatency::switch_cpus.inst 85426.666667                       # average overall miss latency in ticks ((Tick/Count))
system.l2.demandAvgMissLatency::switch_cpus.data 100725.474512                       # average overall miss latency in ticks ((Tick/Count))
system.l2.demandAvgMissLatency::total    100648.087948                       # average overall miss latency in ticks ((Tick/Count))
system.l2.overallAvgMissLatency::switch_cpus.inst 85426.666667                       # average overall miss latency ((Tick/Count))
system.l2.overallAvgMissLatency::switch_cpus.data 100725.474512                       # average overall miss latency ((Tick/Count))
system.l2.overallAvgMissLatency::total   100648.087948                       # average overall miss latency ((Tick/Count))
system.l2.blockedCycles::no_mshrs                   0                       # number of cycles access was blocked (Cycle)
system.l2.blockedCycles::no_targets                 0                       # number of cycles access was blocked (Cycle)
system.l2.blockedCauses::no_mshrs                   0                       # number of times access was blocked (Count)
system.l2.blockedCauses::no_targets                 0                       # number of times access was blocked (Count)
system.l2.avgBlocked::no_mshrs                    nan                       # average number of cycles each access was blocked ((Cycle/Count))
system.l2.avgBlocked::no_targets                  nan                       # average number of cycles each access was blocked ((Cycle/Count))
system.l2.writebacks::writebacks                53919                       # number of writebacks (Count)
system.l2.writebacks::total                     53919                       # number of writebacks (Count)
system.l2.demandMshrMisses::switch_cpus.inst          375                       # number of demand (read+write) MSHR misses (Count)
system.l2.demandMshrMisses::switch_cpus.data        73760                       # number of demand (read+write) MSHR misses (Count)
system.l2.demandMshrMisses::total               74135                       # number of demand (read+write) MSHR misses (Count)
system.l2.overallMshrMisses::switch_cpus.inst          375                       # number of overall MSHR misses (Count)
system.l2.overallMshrMisses::switch_cpus.data        73760                       # number of overall MSHR misses (Count)
system.l2.overallMshrMisses::total              74135                       # number of overall MSHR misses (Count)
system.l2.demandMshrMissLatency::switch_cpus.inst     28285000                       # number of demand (read+write) MSHR miss ticks (Tick)
system.l2.demandMshrMissLatency::switch_cpus.data   6691911000                       # number of demand (read+write) MSHR miss ticks (Tick)
system.l2.demandMshrMissLatency::total     6720196000                       # number of demand (read+write) MSHR miss ticks (Tick)
system.l2.overallMshrMissLatency::switch_cpus.inst     28285000                       # number of overall MSHR miss ticks (Tick)
system.l2.overallMshrMissLatency::switch_cpus.data   6691911000                       # number of overall MSHR miss ticks (Tick)
system.l2.overallMshrMissLatency::total    6720196000                       # number of overall MSHR miss ticks (Tick)
system.l2.demandMshrMissRate::switch_cpus.inst     0.000014                       # mshr miss ratio for demand accesses (Ratio)
system.l2.demandMshrMissRate::switch_cpus.data     0.031905                       # mshr miss ratio for demand accesses (Ratio)
system.l2.demandMshrMissRate::total          0.002602                       # mshr miss ratio for demand accesses (Ratio)
system.l2.overallMshrMissRate::switch_cpus.inst     0.000014                       # mshr miss ratio for overall accesses (Ratio)
system.l2.overallMshrMissRate::switch_cpus.data     0.031905                       # mshr miss ratio for overall accesses (Ratio)
system.l2.overallMshrMissRate::total         0.002602                       # mshr miss ratio for overall accesses (Ratio)
system.l2.demandAvgMshrMissLatency::switch_cpus.inst 75426.666667                       # average overall mshr miss latency ((Tick/Count))
system.l2.demandAvgMshrMissLatency::switch_cpus.data 90725.474512                       # average overall mshr miss latency ((Tick/Count))
system.l2.demandAvgMshrMissLatency::total 90648.087948                       # average overall mshr miss latency ((Tick/Count))
system.l2.overallAvgMshrMissLatency::switch_cpus.inst 75426.666667                       # average overall mshr miss latency ((Tick/Count))
system.l2.overallAvgMshrMissLatency::switch_cpus.data 90725.474512                       # average overall mshr miss latency ((Tick/Count))
system.l2.overallAvgMshrMissLatency::total 90648.087948                       # average overall mshr miss latency ((Tick/Count))
system.l2.replacements                          54746                       # number of replacements (Count)
system.l2.ReadCleanReq.hits::switch_cpus.inst     26184106                       # number of ReadCleanReq hits (Count)
system.l2.ReadCleanReq.hits::total           26184106                       # number of ReadCleanReq hits (Count)
system.l2.ReadCleanReq.misses::switch_cpus.inst          375                       # number of ReadCleanReq misses (Count)
system.l2.ReadCleanReq.misses::total              375                       # number of ReadCleanReq misses (Count)
system.l2.ReadCleanReq.missLatency::switch_cpus.inst     32035000                       # number of ReadCleanReq miss ticks (Tick)
system.l2.ReadCleanReq.missLatency::total     32035000                       # number of ReadCleanReq miss ticks (Tick)
system.l2.ReadCleanReq.accesses::switch_cpus.inst     26184481                       # number of ReadCleanReq accesses(hits+misses) (Count)
system.l2.ReadCleanReq.accesses::total       26184481                       # number of ReadCleanReq accesses(hits+misses) (Count)
system.l2.ReadCleanReq.missRate::switch_cpus.inst     0.000014                       # miss rate for ReadCleanReq accesses (Ratio)
system.l2.ReadCleanReq.missRate::total       0.000014                       # miss rate for ReadCleanReq accesses (Ratio)
system.l2.ReadCleanReq.avgMissLatency::switch_cpus.inst 85426.666667                       # average ReadCleanReq miss latency ((Tick/Count))
system.l2.ReadCleanReq.avgMissLatency::total 85426.666667                       # average ReadCleanReq miss latency ((Tick/Count))
system.l2.ReadCleanReq.mshrMisses::switch_cpus.inst          375                       # number of ReadCleanReq MSHR misses (Count)
system.l2.ReadCleanReq.mshrMisses::total          375                       # number of ReadCleanReq MSHR misses (Count)
system.l2.ReadCleanReq.mshrMissLatency::switch_cpus.inst     28285000                       # number of ReadCleanReq MSHR miss ticks (Tick)
system.l2.ReadCleanReq.mshrMissLatency::total     28285000                       # number of ReadCleanReq MSHR miss ticks (Tick)
system.l2.ReadCleanReq.mshrMissRate::switch_cpus.inst     0.000014                       # mshr miss rate for ReadCleanReq accesses (Ratio)
system.l2.ReadCleanReq.mshrMissRate::total     0.000014                       # mshr miss rate for ReadCleanReq accesses (Ratio)
system.l2.ReadCleanReq.avgMshrMissLatency::switch_cpus.inst 75426.666667                       # average ReadCleanReq mshr miss latency ((Tick/Count))
system.l2.ReadCleanReq.avgMshrMissLatency::total 75426.666667                       # average ReadCleanReq mshr miss latency ((Tick/Count))
system.l2.ReadExReq.hits::switch_cpus.data       558920                       # number of ReadExReq hits (Count)
system.l2.ReadExReq.hits::total                558920                       # number of ReadExReq hits (Count)
system.l2.ReadExReq.misses::switch_cpus.data        73679                       # number of ReadExReq misses (Count)
system.l2.ReadExReq.misses::total               73679                       # number of ReadExReq misses (Count)
system.l2.ReadExReq.missLatency::switch_cpus.data   7422576000                       # number of ReadExReq miss ticks (Tick)
system.l2.ReadExReq.missLatency::total     7422576000                       # number of ReadExReq miss ticks (Tick)
system.l2.ReadExReq.accesses::switch_cpus.data       632599                       # number of ReadExReq accesses(hits+misses) (Count)
system.l2.ReadExReq.accesses::total            632599                       # number of ReadExReq accesses(hits+misses) (Count)
system.l2.ReadExReq.missRate::switch_cpus.data     0.116470                       # miss rate for ReadExReq accesses (Ratio)
system.l2.ReadExReq.missRate::total          0.116470                       # miss rate for ReadExReq accesses (Ratio)
system.l2.ReadExReq.avgMissLatency::switch_cpus.data 100742.083905                       # average ReadExReq miss latency ((Tick/Count))
system.l2.ReadExReq.avgMissLatency::total 100742.083905                       # average ReadExReq miss latency ((Tick/Count))
system.l2.ReadExReq.mshrMisses::switch_cpus.data        73679                       # number of ReadExReq MSHR misses (Count)
system.l2.ReadExReq.mshrMisses::total           73679                       # number of ReadExReq MSHR misses (Count)
system.l2.ReadExReq.mshrMissLatency::switch_cpus.data   6685786000                       # number of ReadExReq MSHR miss ticks (Tick)
system.l2.ReadExReq.mshrMissLatency::total   6685786000                       # number of ReadExReq MSHR miss ticks (Tick)
system.l2.ReadExReq.mshrMissRate::switch_cpus.data     0.116470                       # mshr miss rate for ReadExReq accesses (Ratio)
system.l2.ReadExReq.mshrMissRate::total      0.116470                       # mshr miss rate for ReadExReq accesses (Ratio)
system.l2.ReadExReq.avgMshrMissLatency::switch_cpus.data 90742.083905                       # average ReadExReq mshr miss latency ((Tick/Count))
system.l2.ReadExReq.avgMshrMissLatency::total 90742.083905                       # average ReadExReq mshr miss latency ((Tick/Count))
system.l2.ReadSharedReq.hits::switch_cpus.data      1679187                       # number of ReadSharedReq hits (Count)
system.l2.ReadSharedReq.hits::total           1679187                       # number of ReadSharedReq hits (Count)
system.l2.ReadSharedReq.misses::switch_cpus.data           81                       # number of ReadSharedReq misses (Count)
system.l2.ReadSharedReq.misses::total              81                       # number of ReadSharedReq misses (Count)
system.l2.ReadSharedReq.missLatency::switch_cpus.data      6935000                       # number of ReadSharedReq miss ticks (Tick)
system.l2.ReadSharedReq.missLatency::total      6935000                       # number of ReadSharedReq miss ticks (Tick)
system.l2.ReadSharedReq.accesses::switch_cpus.data      1679268                       # number of ReadSharedReq accesses(hits+misses) (Count)
system.l2.ReadSharedReq.accesses::total       1679268                       # number of ReadSharedReq accesses(hits+misses) (Count)
system.l2.ReadSharedReq.missRate::switch_cpus.data     0.000048                       # miss rate for ReadSharedReq accesses (Ratio)
system.l2.ReadSharedReq.missRate::total      0.000048                       # miss rate for ReadSharedReq accesses (Ratio)
system.l2.ReadSharedReq.avgMissLatency::switch_cpus.data 85617.283951                       # average ReadSharedReq miss latency ((Tick/Count))
system.l2.ReadSharedReq.avgMissLatency::total 85617.283951                       # average ReadSharedReq miss latency ((Tick/Count))
system.l2.ReadSharedReq.mshrMisses::switch_cpus.data           81                       # number of ReadSharedReq MSHR misses (Count)
system.l2.ReadSharedReq.mshrMisses::total           81                       # number of ReadSharedReq MSHR misses (Count)
system.l2.ReadSharedReq.mshrMissLatency::switch_cpus.data      6125000                       # number of ReadSharedReq MSHR miss ticks (Tick)
system.l2.ReadSharedReq.mshrMissLatency::total      6125000                       # number of ReadSharedReq MSHR miss ticks (Tick)
system.l2.ReadSharedReq.mshrMissRate::switch_cpus.data     0.000048                       # mshr miss rate for ReadSharedReq accesses (Ratio)
system.l2.ReadSharedReq.mshrMissRate::total     0.000048                       # mshr miss rate for ReadSharedReq accesses (Ratio)
system.l2.ReadSharedReq.avgMshrMissLatency::switch_cpus.data 75617.283951                       # average ReadSharedReq mshr miss latency ((Tick/Count))
system.l2.ReadSharedReq.avgMshrMissLatency::total 75617.283951                       # average ReadSharedReq mshr miss latency ((Tick/Count))
system.l2.WritebackClean.hits::writebacks     26184481                       # number of WritebackClean hits (Count)
system.l2.WritebackClean.hits::total         26184481                       # number of WritebackClean hits (Count)
system.l2.WritebackClean.accesses::writebacks     26184481                       # number of WritebackClean accesses(hits+misses) (Count)
system.l2.WritebackClean.accesses::total     26184481                       # number of WritebackClean accesses(hits+misses) (Count)
system.l2.WritebackDirty.hits::writebacks       696891                       # number of WritebackDirty hits (Count)
system.l2.WritebackDirty.hits::total           696891                       # number of WritebackDirty hits (Count)
system.l2.WritebackDirty.accesses::writebacks       696891                       # number of WritebackDirty accesses(hits+misses) (Count)
system.l2.WritebackDirty.accesses::total       696891                       # number of WritebackDirty accesses(hits+misses) (Count)
system.l2.power_state.pwrStateResidencyTicks::UNDEFINED 960795018500                       # Cumulative time (in ticks) in various power states (Tick)
system.l2.tags.tagsInUse                 27356.346347                       # Average ticks per tags in use ((Tick/Count))
system.l2.tags.totalRefs                     64614900                       # Total number of references to valid blocks. (Count)
system.l2.tags.sampledRefs                      87514                       # Sample count of references to valid blocks. (Count)
system.l2.tags.avgRefs                     738.337866                       # Average number of references to valid blocks. ((Count/Count))
system.l2.tags.warmupTick                           0                       # The tick when the warmup percentage was hit. (Tick)
system.l2.tags.occupancies::writebacks      14.639130                       # Average occupied blocks per tick, per requestor ((Count/Tick))
system.l2.tags.occupancies::cpu.inst       402.563435                       # Average occupied blocks per tick, per requestor ((Count/Tick))
system.l2.tags.occupancies::cpu.data      6476.093768                       # Average occupied blocks per tick, per requestor ((Count/Tick))
system.l2.tags.occupancies::switch_cpus.inst   186.958589                       # Average occupied blocks per tick, per requestor ((Count/Tick))
system.l2.tags.occupancies::switch_cpus.data 20276.091425                       # Average occupied blocks per tick, per requestor ((Count/Tick))
system.l2.tags.avgOccs::writebacks           0.000447                       # Average percentage of cache occupancy ((Ratio/Tick))
system.l2.tags.avgOccs::cpu.inst             0.012285                       # Average percentage of cache occupancy ((Ratio/Tick))
system.l2.tags.avgOccs::cpu.data             0.197635                       # Average percentage of cache occupancy ((Ratio/Tick))
system.l2.tags.avgOccs::switch_cpus.inst     0.005706                       # Average percentage of cache occupancy ((Ratio/Tick))
system.l2.tags.avgOccs::switch_cpus.data     0.618777                       # Average percentage of cache occupancy ((Ratio/Tick))
system.l2.tags.avgOccs::total                0.834849                       # Average percentage of cache occupancy ((Ratio/Tick))
system.l2.tags.occupanciesTaskId::1024          32768                       # Occupied blocks per task id (Count)
system.l2.tags.ageTaskId_1024::3                 1032                       # Occupied blocks per task id, per block age (Count)
system.l2.tags.ageTaskId_1024::4                31736                       # Occupied blocks per task id, per block age (Count)
system.l2.tags.ratioOccsTaskId::1024                1                       # Ratio of occupied blocks and all blocks, per task id (Ratio)
system.l2.tags.tagAccesses                  456015727                       # Number of tag accesses (Count)
system.l2.tags.dataAccesses                 456015727                       # Number of data accesses (Count)
system.l2.tags.power_state.pwrStateResidencyTicks::UNDEFINED 960795018500                       # Cumulative time (in ticks) in various power states (Tick)
system.mem_ctrls.avgPriority_writebacks::samples     53919.00                       # Average QoS priority value for accepted requests (Count)
system.mem_ctrls.avgPriority_switch_cpus.inst::samples       375.00                       # Average QoS priority value for accepted requests (Count)
system.mem_ctrls.avgPriority_switch_cpus.data::samples     73759.00                       # Average QoS priority value for accepted requests (Count)
system.mem_ctrls.priorityMinLatency      0.000000018750                       # per QoS priority minimum request to response latency (Second)
system.mem_ctrls.priorityMaxLatency      0.071127688500                       # per QoS priority maximum request to response latency (Second)
system.mem_ctrls.numReadWriteTurnArounds         3291                       # Number of turnarounds from READ to WRITE (Count)
system.mem_ctrls.numWriteReadTurnArounds         3291                       # Number of turnarounds from WRITE to READ (Count)
system.mem_ctrls.numStayReadState              416643                       # Number of times bus staying in READ state (Count)
system.mem_ctrls.numStayWriteState              50665                       # Number of times bus staying in WRITE state (Count)
system.mem_ctrls.readReqs                       74135                       # Number of read requests accepted (Count)
system.mem_ctrls.writeReqs                      53919                       # Number of write requests accepted (Count)
system.mem_ctrls.readBursts                     74135                       # Number of controller read bursts, including those serviced by the write queue (Count)
system.mem_ctrls.writeBursts                    53919                       # Number of controller write bursts, including those merged in the write queue (Count)
[...]
system.switch_cpus.mmu.dtb.readHits                 0                       # Read hits (Count)
system.switch_cpus.mmu.dtb.readMisses               0                       # Read misses (Count)
system.switch_cpus.mmu.dtb.writeHits                0                       # Write hits (Count)
system.switch_cpus.mmu.dtb.writeMisses              0                       # Write misses (Count)
system.switch_cpus.mmu.dtb.inserts                  0                       # Number of times an entry is inserted into the TLB (Count)
system.switch_cpus.mmu.dtb.flushTlb                 0                       # Number of times complete TLB was flushed (Count)
system.switch_cpus.mmu.dtb.flushTlbMva              0                       # Number of times TLB was flushed by MVA (Count)
system.switch_cpus.mmu.dtb.flushTlbMvaAsid            0                       # Number of times TLB was flushed by MVA & ASID (Count)
system.switch_cpus.mmu.dtb.flushTlbAsid             0                       # Number of times TLB was flushed by ASID (Count)
system.switch_cpus.mmu.dtb.flushedEntries            0                       # Number of entries that have been flushed from TLB (Count)
system.switch_cpus.mmu.dtb.readAccesses             0                       # Read accesses (Count)
system.switch_cpus.mmu.dtb.writeAccesses            0                       # Write accesses (Count)
system.switch_cpus.mmu.dtb.hits                     0                       # Total TLB (inst and data) hits (Count)
system.switch_cpus.mmu.dtb.misses                   0                       # Total TLB (inst and data) misses (Count)
system.switch_cpus.mmu.dtb.accesses                 0                       # Total TLB (inst and data) accesses (Count)
system.switch_cpus.mmu.dtb_walker.walks             0                       # Table walker walks requested (Count)
system.switch_cpus.mmu.dtb_walker.requestOrigin_Requested::Data            0                       # Table walker requests started/completed, data/inst (Count)
system.switch_cpus.mmu.dtb_walker.requestOrigin_Requested::Inst            0                       # Table walker requests started/completed, data/inst (Count)
system.switch_cpus.mmu.dtb_walker.requestOrigin_Requested::total            0                       # Table walker requests started/completed, data/inst (Count)
system.switch_cpus.mmu.dtb_walker.requestOrigin_Completed::Data            0                       # Table walker requests started/completed, data/inst (Count)
system.switch_cpus.mmu.dtb_walker.requestOrigin_Completed::Inst            0                       # Table walker requests started/completed, data/inst (Count)
system.switch_cpus.mmu.dtb_walker.requestOrigin_Completed::total            0                       # Table walker requests started/completed, data/inst (Count)
system.switch_cpus.mmu.dtb_walker.requestOrigin::total            0                       # Table walker requests started/completed, data/inst (Count)
system.switch_cpus.mmu.dtb_walker.power_state.pwrStateResidencyTicks::UNDEFINED 960795018500                       # Cumulative time (in ticks) in various power states (Tick)
system.switch_cpus.mmu.itb.instHits                 0                       # Inst hits (Count)
system.switch_cpus.mmu.itb.instMisses               0                       # Inst misses (Count)
system.switch_cpus.mmu.itb.inserts                  0                       # Number of times an entry is inserted into the TLB (Count)
system.switch_cpus.mmu.itb.flushTlb                 0                       # Number of times complete TLB was flushed (Count)
system.switch_cpus.mmu.itb.flushTlbMva              0                       # Number of times TLB was flushed by MVA (Count)
system.switch_cpus.mmu.itb.flushTlbMvaAsid            0                       # Number of times TLB was flushed by MVA & ASID (Count)
system.switch_cpus.mmu.itb.flushTlbAsid             0                       # Number of times TLB was flushed by ASID (Count)
system.switch_cpus.mmu.itb.flushedEntries            0                       # Number of entries that have been flushed from TLB (Count)
system.switch_cpus.mmu.itb.instAccesses             0                       # Inst accesses (Count)
system.switch_cpus.mmu.itb.hits                     0                       # Total TLB (inst and data) hits (Count)
system.switch_cpus.mmu.itb.misses                   0                       # Total TLB (inst and data) misses (Count)
system.switch_cpus.mmu.itb.accesses                 0                       # Total TLB (inst and data) accesses (Count)
system.switch_cpus.mmu.itb_walker.walks             0                       # Table walker walks requested (Count)
system.switch_cpus.mmu.itb_walker.requestOrigin_Requested::Data            0                       # Table walker requests started/completed, data/inst (Count)
system.switch_cpus.mmu.itb_walker.requestOrigin_Requested::Inst            0                       # Table walker requests started/completed, data/inst (Count)
system.switch_cpus.mmu.itb_walker.requestOrigin_Requested::total            0                       # Table walker requests started/completed, data/inst (Count)
system.switch_cpus.mmu.itb_walker.requestOrigin_Completed::Data            0                       # Table walker requests started/completed, data/inst (Count)
system.switch_cpus.mmu.itb_walker.requestOrigin_Completed::Inst            0                       # Table walker requests started/completed, data/inst (Count)
system.switch_cpus.mmu.itb_walker.requestOrigin_Completed::total            0                       # Table walker requests started/completed, data/inst (Count)
system.switch_cpus.mmu.itb_walker.requestOrigin::total            0                       # Table walker requests started/completed, data/inst (Count)
system.switch_cpus.mmu.itb_walker.power_state.pwrStateResidencyTicks::UNDEFINED 960795018500                       # Cumulative time (in ticks) in various power states (Tick)
system.switch_cpus.mmu.l2_shared.instHits            0                       # Inst hits (Count)
system.switch_cpus.mmu.l2_shared.instMisses            0                       # Inst misses (Count)
system.switch_cpus.mmu.l2_shared.inserts            0                       # Number of times an entry is inserted into the TLB (Count)
system.switch_cpus.mmu.l2_shared.flushTlb            0                       # Number of times complete TLB was flushed (Count)
system.switch_cpus.mmu.l2_shared.flushTlbMva            0                       # Number of times TLB was flushed by MVA (Count)
system.switch_cpus.mmu.l2_shared.flushTlbMvaAsid            0                       # Number of times TLB was flushed by MVA & ASID (Count)
system.switch_cpus.mmu.l2_shared.flushTlbAsid            0                       # Number of times TLB was flushed by ASID (Count)
system.switch_cpus.mmu.l2_shared.flushedEntries            0                       # Number of entries that have been flushed from TLB (Count)
system.switch_cpus.mmu.l2_shared.instAccesses            0                       # Inst accesses (Count)
system.switch_cpus.mmu.l2_shared.hits               0                       # Total TLB (inst and data) hits (Count)
system.switch_cpus.mmu.l2_shared.misses             0                       # Total TLB (inst and data) misses (Count)
system.switch_cpus.mmu.l2_shared.accesses            0                       # Total TLB (inst and data) accesses (Count)
system.switch_cpus.mmu.stage2_dtb.readHits            0                       # Read hits (Count)
system.switch_cpus.mmu.stage2_dtb.readMisses            0                       # Read misses (Count)
system.switch_cpus.mmu.stage2_dtb.writeHits            0                       # Write hits (Count)
system.switch_cpus.mmu.stage2_dtb.writeMisses            0                       # Write misses (Count)
system.switch_cpus.mmu.stage2_dtb.inserts            0                       # Number of times an entry is inserted into the TLB (Count)
system.switch_cpus.mmu.stage2_dtb.flushTlb            0                       # Number of times complete TLB was flushed (Count)
system.switch_cpus.mmu.stage2_dtb.flushTlbMva            0                       # Number of times TLB was flushed by MVA (Count)
system.switch_cpus.mmu.stage2_dtb.flushTlbMvaAsid            0                       # Number of times TLB was flushed by MVA & ASID (Count)
system.switch_cpus.mmu.stage2_dtb.flushTlbAsid            0                       # Number of times TLB was flushed by ASID (Count)
system.switch_cpus.mmu.stage2_dtb.flushedEntries            0                       # Number of entries that have been flushed from TLB (Count)
system.switch_cpus.mmu.stage2_dtb.readAccesses            0                       # Read accesses (Count)
system.switch_cpus.mmu.stage2_dtb.writeAccesses            0                       # Write accesses (Count)
system.switch_cpus.mmu.stage2_dtb.hits              0                       # Total TLB (inst and data) hits (Count)
system.switch_cpus.mmu.stage2_dtb.misses            0                       # Total TLB (inst and data) misses (Count)
system.switch_cpus.mmu.stage2_dtb.accesses            0                       # Total TLB (inst and data) accesses (Count)
system.switch_cpus.mmu.stage2_dtb_walker.walks            0                       # Table walker walks requested (Count)
system.switch_cpus.mmu.stage2_dtb_walker.requestOrigin_Requested::Data            0                       # Table walker requests started/completed, data/inst (Count)
system.switch_cpus.mmu.stage2_dtb_walker.requestOrigin_Requested::Inst            0                       # Table walker requests started/completed, data/inst (Count)
system.switch_cpus.mmu.stage2_dtb_walker.requestOrigin_Requested::total            0                       # Table walker requests started/completed, data/inst (Count)
system.switch_cpus.mmu.stage2_dtb_walker.requestOrigin_Completed::Data            0                       # Table walker requests started/completed, data/inst (Count)
system.switch_cpus.mmu.stage2_dtb_walker.requestOrigin_Completed::Inst            0                       # Table walker requests started/completed, data/inst (Count)
system.switch_cpus.mmu.stage2_dtb_walker.requestOrigin_Completed::total            0                       # Table walker requests started/completed, data/inst (Count)
system.switch_cpus.mmu.stage2_dtb_walker.requestOrigin::total            0                       # Table walker requests started/completed, data/inst (Count)
system.switch_cpus.mmu.stage2_dtb_walker.power_state.pwrStateResidencyTicks::UNDEFINED 960795018500                       # Cumulative time (in ticks) in various power states (Tick)
system.switch_cpus.mmu.stage2_itb.instHits            0                       # Inst hits (Count)
system.switch_cpus.mmu.stage2_itb.instMisses            0                       # Inst misses (Count)
system.switch_cpus.mmu.stage2_itb.inserts            0                       # Number of times an entry is inserted into the TLB (Count)
system.switch_cpus.mmu.stage2_itb.flushTlb            0                       # Number of times complete TLB was flushed (Count)
system.switch_cpus.mmu.stage2_itb.flushTlbMva            0                       # Number of times TLB was flushed by MVA (Count)
system.switch_cpus.mmu.stage2_itb.flushTlbMvaAsid            0                       # Number of times TLB was flushed by MVA & ASID (Count)
system.switch_cpus.mmu.stage2_itb.flushTlbAsid            0                       # Number of times TLB was flushed by ASID (Count)
system.switch_cpus.mmu.stage2_itb.flushedEntries            0                       # Number of entries that have been flushed from TLB (Count)
system.switch_cpus.mmu.stage2_itb.instAccesses            0                       # Inst accesses (Count)
system.switch_cpus.mmu.stage2_itb.hits              0                       # Total TLB (inst and data) hits (Count)
system.switch_cpus.mmu.stage2_itb.misses            0                       # Total TLB (inst and data) misses (Count)
system.switch_cpus.mmu.stage2_itb.accesses            0                       # Total TLB (inst and data) accesses (Count)
system.switch_cpus.mmu.stage2_itb_walker.walks            0                       # Table walker walks requested (Count)
system.switch_cpus.mmu.stage2_itb_walker.requestOrigin_Requested::Data            0                       # Table walker requests started/completed, data/inst (Count)
system.switch_cpus.mmu.stage2_itb_walker.requestOrigin_Requested::Inst            0                       # Table walker requests started/completed, data/inst (Count)
system.switch_cpus.mmu.stage2_itb_walker.requestOrigin_Requested::total            0                       # Table walker requests started/completed, data/inst (Count)
system.switch_cpus.mmu.stage2_itb_walker.requestOrigin_Completed::Data            0                       # Table walker requests started/completed, data/inst (Count)
system.switch_cpus.mmu.stage2_itb_walker.requestOrigin_Completed::Inst            0                       # Table walker requests started/completed, data/inst (Count)
system.switch_cpus.mmu.stage2_itb_walker.requestOrigin_Completed::total            0                       # Table walker requests started/completed, data/inst (Count)
system.switch_cpus.mmu.stage2_itb_walker.requestOrigin::total            0                       # Table walker requests started/completed, data/inst (Count)
system.switch_cpus.mmu.stage2_itb_walker.power_state.pwrStateResidencyTicks::UNDEFINED 960795018500                       # Cumulative time (in ticks) in various power states (Tick)
system.switch_cpus.power_state.pwrStateResidencyTicks::OFF 960795018500                       # Cumulative time (in ticks) in various power states (Tick)
system.switch_cpus.thread_0.numInsts        500000000                       # Number of Instructions committed (Count)
system.switch_cpus.thread_0.numOps          561366360                       # Number of Ops committed (Count)
system.switch_cpus.thread_0.numMemRefs              0                       # Number of Memory References (Count)
system.tol2bus.transDist::ReadResp           27863749                       # Transaction distribution (Count)
system.tol2bus.transDist::WritebackDirty       750810                       # Transaction distribution (Count)
system.tol2bus.transDist::WritebackClean     26184481                       # Transaction distribution (Count)
system.tol2bus.transDist::CleanEvict          1615803                       # Transaction distribution (Count)
system.tol2bus.transDist::ReadExReq            632599                       # Transaction distribution (Count)
system.tol2bus.transDist::ReadExResp           632599                       # Transaction distribution (Count)
system.tol2bus.transDist::ReadCleanReq       26184481                       # Transaction distribution (Count)
system.tol2bus.transDist::ReadSharedReq       1679268                       # Transaction distribution (Count)
system.tol2bus.pktCount_system.cpu.icache.mem_side_port::system.l2.cpu_side_port     78553443                       # Packet count per connected requestor and responder (Count)
system.tol2bus.pktCount_system.cpu.dcache.mem_side_port::system.l2.cpu_side_port      6935601                       # Packet count per connected requestor and responder (Count)
system.tol2bus.pktCount::total               85489044                       # Packet count per connected requestor and responder (Count)
system.tol2bus.pktSize_system.cpu.icache.mem_side_port::system.l2.cpu_side_port   3351613568                       # Cumulative packet size per connected requestor and responder (Byte)
system.tol2bus.pktSize_system.cpu.dcache.mem_side_port::system.l2.cpu_side_port    192560512                       # Cumulative packet size per connected requestor and responder (Byte)
system.tol2bus.pktSize::total              3544174080                       # Cumulative packet size per connected requestor and responder (Byte)
system.tol2bus.snoops                           54746                       # Total snoops (Count)
system.tol2bus.snoopTraffic                   3450816                       # Total snoop traffic (Byte)
system.tol2bus.snoopFanout::samples          28551094                       # Request fanout histogram (Count)
system.tol2bus.snoopFanout::mean             0.000001                       # Request fanout histogram (Count)
system.tol2bus.snoopFanout::stdev            0.001107                       # Request fanout histogram (Count)
system.tol2bus.snoopFanout::underflows              0      0.00%      0.00% # Request fanout histogram (Count)
system.tol2bus.snoopFanout::0                28551059    100.00%    100.00% # Request fanout histogram (Count)
system.tol2bus.snoopFanout::1                      35      0.00%    100.00% # Request fanout histogram (Count)
system.tol2bus.snoopFanout::2                       0      0.00%    100.00% # Request fanout histogram (Count)
system.tol2bus.snoopFanout::overflows               0      0.00%    100.00% # Request fanout histogram (Count)
system.tol2bus.snoopFanout::min_value               0                       # Request fanout histogram (Count)
system.tol2bus.snoopFanout::max_value               1                       # Request fanout histogram (Count)
system.tol2bus.snoopFanout::total            28551094                       # Request fanout histogram (Count)
system.tol2bus.power_state.pwrStateResidencyTicks::UNDEFINED 960795018500                       # Cumulative time (in ticks) in various power states (Tick)
system.tol2bus.reqLayer0.occupancy        55377720000                       # Layer occupancy (ticks) (Tick)
system.tol2bus.reqLayer0.utilization              0.1                       # Layer utilization (Ratio)
system.tol2bus.respLayer0.occupancy       39276737468                       # Layer occupancy (ticks) (Tick)
system.tol2bus.respLayer0.utilization             0.0                       # Layer utilization (Ratio)
system.tol2bus.respLayer1.occupancy        3467805989                       # Layer occupancy (ticks) (Tick)
system.tol2bus.respLayer1.utilization             0.0                       # Layer utilization (Ratio)
system.tol2bus.snoop_filter.totRequests      56992696                       # Total number of requests made to the snoop filter. (Count)
system.tol2bus.snoop_filter.hitSingleRequests     28496348                       # Number of requests hitting in the snoop filter with a single holder of the requested data. (Count)
system.tol2bus.snoop_filter.hitMultiRequests            0                       # Number of requests hitting in the snoop filter with multiple (>1) holders of the requested data. (Count)
system.tol2bus.snoop_filter.totSnoops              35                       # Total number of snoops made to the snoop filter. (Count)
system.tol2bus.snoop_filter.hitSingleSnoops           35                       # Number of snoops hitting in the snoop filter with a single holder of the requested data. (Count)
system.tol2bus.snoop_filter.hitMultiSnoops            0                       # Number of snoops hitting in the snoop filter with multiple (>1) holders of the requested data. (Count)
system.voltage_domain.voltage                       1                       # Voltage in Volts (Volt)
system.workload.inst.arm                            0                       # number of arm instructions executed (Count)
system.workload.inst.quiesce                        0                       # number of quiesce instructions executed (Count)
system.switch_cpus.idleCycles               505268005                       # Total number of cycles that the object has spent stopped (Unspecified)
system.switch_cpus.tickCycles              1186449613                       # Number of cycles that the object actually ticked (Unspecified)

---------- End Simulation Statistics   ----------
